/*--------------------------------*- C++ -*----------------------------------*\
| =========                 |                                                 |
| \\      /  F ield         | OpenFOAM: The Open Source CFD Toolbox           |
|  \\    /   O peration     | Version:  1912                                  |
|   \\  /    A nd           | Website:  www.openfoam.com                      |
|    \\/     M anipulation  |                                                 |
\*---------------------------------------------------------------------------*/
FoamFile
{
    version     2.0;
    format      ascii;
    class       volScalarField;
    location    "0/solid";
    object      cellToRegion;
}
// * * * * * * * * * * * * * * * * * * * * * * * * * * * * * * * * * * * * * //

dimensions      [0 0 0 0 0 0 0];


internalField   uniform 1;

boundaryField
{
    blWall
    {
        type            zeroGradient;
    }
    iWall
    {
        type            zeroGradient;
    }
    lWall
    {
        type            zeroGradient;
    }
    oWall
    {
        type            zeroGradient;
    }
    flWall
    {
        type            zeroGradient;
    }
    solid_to_fluid
    {
        type            calculated;
        value           uniform 0;
    }
}


// ************************************************************************* //
