/*--------------------------------*- C++ -*----------------------------------*\
| =========                 |                                                 |
| \\      /  F ield         | OpenFOAM: The Open Source CFD Toolbox           |
|  \\    /   O peration     | Version:  1912                                  |
|   \\  /    A nd           | Website:  www.openfoam.com                      |
|    \\/     M anipulation  |                                                 |
\*---------------------------------------------------------------------------*/
FoamFile
{
    version     2.0;
    format      ascii;
    class       volScalarField;
    location    "0/solid";
    object      T;
}
// * * * * * * * * * * * * * * * * * * * * * * * * * * * * * * * * * * * * * //

dimensions      [ 0 0 0 1 0 0 0 ];

internalField   uniform 1375;

boundaryField
{
#includeEtc "caseDicts/setConstraintTypes"
    iWall
    {
        type            zeroGradient;
    }
    oWall
    {
        type            zeroGradient;
    }
    blWall
    {
        type            zeroGradient;
    }
    flWall
    {
        type            zeroGradient;
    }
    lWall
    {
        type            externalWallHeatFluxTemperature;
        mode            flux;
        q               10000000;
        kappaMethod     solidThermo;
        value           uniform 1500;
    }
    solid_to_fluid
    {
        type            compressible::turbulentTemperatureTwoPhaseRadCoupledMixed;
        Tnbr            T.liquid;
        kappaMethod     solidThermo;
        region          solid;
        otherPhase      gas;
        qrNbr           none;
        qr              none;
        value           uniform 1182;
    }
}


// ************************************************************************* //
