/*--------------------------------*- C++ -*----------------------------------*\
| =========                 |                                                 |
| \\      /  F ield         | OpenFOAM: The Open Source CFD Toolbox           |
|  \\    /   O peration     | Version:  1912                                  |
|   \\  /    A nd           | Website:  www.openfoam.com                      |
|    \\/     M anipulation  |                                                 |
\*---------------------------------------------------------------------------*/
FoamFile
{
    version     2.0;
    format      ascii;
    class       volScalarField;
    location    "0/fluid";
    object      cellToRegion;
}
// * * * * * * * * * * * * * * * * * * * * * * * * * * * * * * * * * * * * * //

dimensions      [0 0 0 0 0 0 0];


internalField   uniform 0;

boundaryField
{
    buWall
    {
        type            zeroGradient;
    }
    uWall
    {
        type            zeroGradient;
    }
    outlet
    {
        type            zeroGradient;
    }
    chamberWall
    {
        type            zeroGradient;
    }
    inlet
    {
        type            zeroGradient;
    }
    fuWall
    {
        type            zeroGradient;
    }
    fluid_to_solid
    {
        type            calculated;
        value           uniform 0;
    }
}


// ************************************************************************* //
