/*--------------------------------*- C++ -*----------------------------------*\
| =========                 |                                                 |
| \\      /  F ield         | OpenFOAM: The Open Source CFD Toolbox           |
|  \\    /   O peration     | Version:  1912                                  |
|   \\  /    A nd           | Website:  www.openfoam.com                      |
|    \\/     M anipulation  |                                                 |
\*---------------------------------------------------------------------------*/
FoamFile
{
    version     2.0;
    format      ascii;
    class       volScalarField;
    location    "0/fluid";
    object      p;
}
// * * * * * * * * * * * * * * * * * * * * * * * * * * * * * * * * * * * * * //

dimensions      [ 1 -1 -2 0 0 0 0 ];

internalField   uniform 600000;

boundaryField
{
    fuWall
    {
        type            calculated;
        value           $internalField;
    }
    inlet
    {
        type            calculated;
        value           $internalField;
    }
    outlet
    {
        type            calculated;
        value           $internalField;
    }
    uWall
    {
        type            calculated;
        value           $internalField;
    }
    buWall
    {
        type            calculated;
        value           $internalField;
    }
    chamberWall
    {
        type            calculated;
        value           $internalField;
    }
    fluid_to_solid
    {
        type            calculated;
        value           $internalField;
    }
}


// ************************************************************************* //
